7
Coordinates from ORCA-job cucn3
  Cu  -0.02930937109772     -0.03333918588695     -0.00216280775033
  C   -0.65722262571065     -1.92369856355721     -0.00148654525573
  N   -1.03048194501589     -3.02888259484086      0.00081686522351
  C   1.92067781179212      0.37350764574506     -0.00191719484653
  N   3.06467387629841      0.60269071004764     -0.00012130256931
  C   -1.38560975174207      1.42449132805719     -0.00178781221424
  N   -2.18792799452421      2.27133066043513     -0.00014120258738
