Cl4Ni
APtclcactv04142420373D 0   0.00000     0.00000
 
  5  4  0  0  0  0  0  0  0  0999 V2000
    0.0000   -0.0000    0.0000 Ni  0  0  0  0  0  0  0  0  0  0  0  0
   -0.0000   -1.9890   -1.4064 Cl  0  4  0  0  0  0  0  0  0  0  0  0
    0.0000    1.9890   -1.4064 Cl  0  4  0  0  0  0  0  0  0  0  0  0
   -1.9890   -0.0000    1.4064 Cl  0  0  0  0  0  0  0  0  0  0  0  0
    1.9890   -0.0000    1.4064 Cl  0  0  0  0  0  0  0  0  0  0  0  0
  1  2  1  0  0  0  0
  1  3  1  0  0  0  0
  1  4  1  0  0  0  0
  1  5  1  0  0  0  0
M  CHG  2   2  -1   3  -1
M  RAD  2   2   2   3   2
M  END
$$$$
