Cl4OW
APtclcactv04142421163D 0   0.00000     0.00000
 
  6  5  0  0  0  0  0  0  0  0999 V2000
   -0.0000    0.0000   -0.1638 W   0  4  0  0  0  0  0  0  0  0  0  0
   -2.3700    0.0000   -0.1638 Cl  0  4  0  0  0  0  0  0  0  0  0  0
    2.3700    0.0000   -0.1638 Cl  0  4  0  0  0  0  0  0  0  0  0  0
    0.0000    2.0525    1.0212 Cl  0  4  0  0  0  0  0  0  0  0  0  0
    0.0000   -2.0525    1.0212 Cl  0  4  0  0  0  0  0  0  0  0  0  0
    0.0000   -0.0000   -1.9173 O   0  4  0  0  0  0  0  0  0  0  0  0
  1  2  1  0  0  0  0
  1  3  1  0  0  0  0
  1  4  1  0  0  0  0
  1  5  1  0  0  0  0
  1  6  2  0  0  0  0
M  CHG  6   1   3   2  -1   3  -1   4  -1   5  -1   6  -1
M  RAD  6   1   2   2   2   3   2   4   2   5   2   6   2
M  END
$$$$
