6
Coordinates from ORCA-job CdCl5
  Cd  0.00044139562860      0.01242549220044      0.00004153381185
  Cl  -3.41123693802391      0.17056651988525      0.00057269468027
  Cl  3.41008930917405      0.17043771902914      0.00058495668246
  Cl  0.00021512493887      2.54265303997310     -0.00065585415314
  Cl  0.00027893905513     -1.44815324045755      2.13433660255900
  Cl  0.00021216922725     -1.44792953063039     -2.13487993358044
