9
Coordinates from ORCA-job agnh3
  Ag  3.40295255629043      1.36700777414793      0.00000018854784
  N   1.26206746255882     -0.16771405921172      0.00000007417023
  H   0.37648496641023     -0.64846793299973      0.00000004752984
  H   1.19076326702250      0.83303585541484     -0.00000015065278
  H   2.07085013220150     -0.76030969529318     -0.00000002282953
  N   5.54384070730056     -0.16773555870743      0.00000010931895
  H   6.42943046614809     -0.64847844560968      0.00000012589928
  H   5.61513818843867      0.83301335076535     -0.00000018849665
  H   4.73507225362913     -0.76035128850637     -0.00000018348717
